Version 4
SHEET 1 880 680
WIRE 128 -208 -240 -208
WIRE 288 -208 208 -208
WIRE 416 -208 352 -208
WIRE 544 -208 416 -208
WIRE 640 -208 544 -208
WIRE 416 -128 416 -208
WIRE -240 -112 -240 -208
WIRE -176 -112 -240 -112
WIRE -240 -64 -240 -112
WIRE 128 -48 128 -208
WIRE 544 -32 544 -208
WIRE 640 0 640 -208
WIRE 272 16 256 16
WIRE 288 16 288 -208
WIRE 288 16 272 16
WIRE 416 96 416 -48
WIRE 416 96 272 96
WIRE -176 128 -176 -112
WIRE 416 128 416 96
WIRE 320 192 288 192
WIRE 208 256 208 240
WIRE 288 256 288 192
WIRE 288 256 208 256
WIRE 208 272 208 256
WIRE -240 336 -240 16
WIRE -176 336 -176 192
WIRE -176 336 -240 336
WIRE 48 336 48 240
WIRE 48 336 -176 336
WIRE 208 336 48 336
WIRE 320 336 208 336
WIRE 416 336 416 208
WIRE 416 336 320 336
WIRE 544 336 544 32
WIRE 544 336 416 336
WIRE 640 336 640 80
WIRE 640 336 544 336
FLAG 48 336 0
SYMBOL PowerProducts\\LT1370 128 96 R0
SYMATTR InstName U1
SYMBOL voltage -240 -80 R0
WINDOW 123 0 0 Left 0
WINDOW 39 0 0 Left 0
SYMATTR InstName V1
SYMATTR Value 10
SYMBOL ind 112 -192 R270
WINDOW 0 32 56 VTop 2
WINDOW 3 5 56 VBottom 2
SYMATTR InstName L1
SYMATTR Value 10µ
SYMBOL schottky 288 -192 R270
WINDOW 0 32 32 VTop 2
WINDOW 3 0 32 VBottom 2
SYMATTR InstName D1
SYMATTR Value MBR0520L
SYMATTR Description Diode
SYMATTR Type diode
SYMBOL res 400 -144 R0
SYMATTR InstName R1
SYMATTR Value 53.6k
SYMBOL res 400 112 R0
SYMATTR InstName R2
SYMATTR Value 6.19k
SYMBOL res 304 240 R0
SYMATTR InstName R3
SYMATTR Value 2k
SYMBOL cap 528 -32 R0
SYMATTR InstName C1
SYMATTR Value 22µ
SYMBOL cap -192 128 R0
SYMATTR InstName C4
SYMATTR Value 22µ
SYMBOL cap 192 272 R0
SYMATTR InstName C5
SYMATTR Value 0.0047µ
SYMBOL cap 304 192 R0
SYMATTR InstName C6
SYMATTR Value 0.047µ
SYMBOL res 624 -16 R0
SYMATTR InstName R4
SYMATTR Value 20k
TEXT -272 360 Left 2 !.tran 5m
TEXT 48 -280 Left 2 ;Boost converter- with feedback
